ID CAPS generated Problem FOR TACS
SOL 1
CEND

LINE=10000
DISP (PRINT,PUNCH) = ALL
STRE (PRINT,PUNCH) = ALL
STRA (PRINT,PUNCH) = ALL
SUBCASE 1
	LABEL = Default
	ANALYSIS = STATICS
	SPC = 2
	LOAD = 2

BEGIN BULK
$---1---|---2---|---3---|---4---|---5---|---6---|---7---|---8---|---9---|---10--|
PARAM, POST, -1

LOAD           2      1.      1.       1
SPCADD         2       1
PLOAD2         12000000.     289
PLOAD2         12000000.     290
PLOAD2         12000000.     291
PLOAD2         12000000.     292
PLOAD2         12000000.     293
PLOAD2         12000000.     294
PLOAD2         12000000.     295
PLOAD2         12000000.     296
PLOAD2         12000000.     297
PLOAD2         12000000.     298
PLOAD2         12000000.     299
PLOAD2         12000000.     300
PLOAD2         12000000.     301
PLOAD2         12000000.     302
PLOAD2         12000000.     303
PLOAD2         12000000.     304
PLOAD2         12000000.     305
PLOAD2         12000000.     306
PLOAD2         12000000.     307
PLOAD2         12000000.     308
$ ... 2860 like lines cut
SPC1           1  123456     344
SPC1           1  123456     345
SPC1           1  123456     346
SPC1           1  123456     347
SPC1           1  123456     348
SPC1           1  123456     386
SPC1           1  123456     387
SPC1           1  123456     388
SPC1           1  123456     389
SPC1           1  123456     390
SPC1           1  123456     692
SPC1           1  123456     693
SPC1           1  123456     694
SPC1           1  123456     695
SPC1           1  123456     696
SPC1           1  123456     902
SPC1           1  123456     903
SPC1           1  123456     904
SPC1           1  123456     905
SPC1           1  123456     906
$ ... 80 like lines cut
MAT1           1 7.2E+10            0.33   2800.      0.      0.      0.+0      
+0         2.E+8      0.      0.
PSHELL       112       1   6.E-3       1      1.       10.833333
PSHELL        17       1   6.E-3       1      1.       10.833333
PSHELL       111       1   6.E-3       1      1.       10.833333
PSHELL       103       1   6.E-3       1      1.       10.833333
PSHELL        95       1   6.E-3       1      1.       10.833333
PSHELL        88       1   6.E-3       1      1.       10.833333
PSHELL        71       1   6.E-3       1      1.       10.833333
PSHELL        64       1   6.E-3       1      1.       10.833333
PSHELL        47       1   6.E-3       1      1.       10.833333
PSHELL        40       1   6.E-3       1      1.       10.833333
PSHELL        23       1   6.E-3       1      1.       10.833333
PSHELL       104       1   6.E-3       1      1.       10.833333
PSHELL        16       1   6.E-3       1      1.       10.833333
PSHELL       110       1   6.E-3       1      1.       10.833333
PSHELL       102       1   6.E-3       1      1.       10.833333
PSHELL        94       1   6.E-3       1      1.       10.833333
PSHELL        87       1   6.E-3       1      1.       10.833333
PSHELL        70       1   6.E-3       1      1.       10.833333
PSHELL        63       1   6.E-3       1      1.       10.833333
PSHELL        46       1   6.E-3       1      1.       10.833333
$ ... 92 like lines cut
DESVAR         1plateLen      0.      0.      0.      0.
DESVAR         2plateWid      0.      0.      0.      0.
DESVAR         3stiffHei      0.      0.      0.      0.

INCLUDE 'nastran_CAPS3_coarse.bdf'

ENDDATA
